Codigos/Simulacoes/57/06 - EE/ieee57_5_0500_EE.txt
================================================================================= 
=== UFF - Doutorado em Computação - Aplicaçoes em Sistemas de Potencia        === 
=== ESTIMADOR DE ESTADO MÍNIMOS QUADRADOS PONDERADOS INCLUINDO MEDIDAS DE PMU === 
=== Desenvolvido por: Rui Menezes de Moraes - 2009                            === 
================================================================================= 
Arquivo de medidores:          F:\Documents\Uff\Artigos\SimSEP\VERSAO WELDAN V2\Codigos\Med\ieee57_5_0500.med
Arquivo do sistema:            F:\Documents\Uff\Artigos\SimSEP\VERSAO WELDAN V2\Codigos\Carga\ieee57_5_0500.txt
Tolerância entre iteraçoes:     1.00e-04
Limite de iteraçoes:           100

--- DADOS DA REDE --------------------------------------------------------------- 
Data do caso:                  08/25/93
Origem:                        UW ARCHIVE          
MVA base:                      100
Ano:                           1961
Estação:                       W
Identificação:                 IEEE 57 Bus Test Case
Número de barras:              57 
Número de ramos:               80 
Referência na barra:           1

--- TELEMEDIDAS ------------------------------------------------------------------
    Tipo 1 = Fluxo de potencia ativa        Tipo  6 = Módulo da tensão            
    Tipo 2 = Injeção de potencia ativa      Tipo  7 = Corrente de ramo (real)     
    Tipo 3 = Ângulo de fase da tensão       Tipo  8 = Corrente de ramo (imag)     
    Tipo 4 = Fluxo de potencia reativa      Tipo  9 = Injeção de corrente (real)  
    Tipo 5 = Injeção de potencia reativa    Tipo 10 = Injeção de corrente (imag)  
----------------------------------------------------------------------------------
   N    D    P TP  PN ST   Exa   FS       DP      V_Ref      V_Med          E(%) 
----------------------------------------------------------------------------------
   1    0    1  6   0  0 0.015 01.1  0.00520   +1.04000   +1.05425     +1.370192 
   2    0    2  6   0  0 0.015 01.1  0.00512   +1.02412   +1.01625     -0.768465 
   3    0    3  6   0  0 0.015 01.1  0.00507   +1.01439   +1.02194     +0.744290 
   4    0    4  6   0  0 0.015 01.1  0.00506   +1.01165   +1.00832     -0.329165 
   5    0    5  6   0  0 0.015 01.1  0.00501   +1.00276   +1.01313     +1.034146 
   6    0    6  6   0  0 0.015 01.1  0.00500   +1.00046   +0.99662     -0.383823 
   7    0    7  6   0  0 0.015 01.1  0.00501   +1.00200   +1.00824     +0.622754 
   8    0    8  6   0  0 0.015 01.1  0.00502   +1.00500   +1.00035     -0.462687 
   9    0    9  6   0  0 0.015 01.1  0.00503   +1.00561   +1.01699     +1.131651 
  10    0   10  6   0  0 0.015 01.1  0.00503   +1.00518   +1.01274     +0.752104 
  11    0   11  6   0  0 0.015 01.1  0.00503   +1.00540   +1.00342     -0.196937 
  12    0   12  6   0  0 0.015 01.1  0.00507   +1.01500   +1.01198     -0.297537 
  13    0   13  6   0  0 0.015 01.1  0.00503   +1.00593   +1.00210     -0.380742 
  14    0   14  6   0  0 0.015 01.1  0.00502   +1.00406   +1.00235     -0.170309 
  15    0   15  6   0  0 0.015 01.1  0.00508   +1.01654   +1.01289     -0.359061 
  16    0   16  6   0  0 0.015 01.1  0.00510   +1.02068   +1.00759     -1.282478 
  17    0   17  6   0  0 0.015 01.1  0.00514   +1.02753   +1.02569     -0.179070 
  18    0   18  6   0  0 0.015 01.1  0.00525   +1.05017   +1.05353     +0.319948 
  19    0   19  6   0  0 0.015 01.1  0.00518   +1.03528   +1.02921     -0.586315 
  20    0   20  6   0  0 0.015 01.1  0.00516   +1.03166   +1.02877     -0.280131 
  21    0   21  6   0  0 0.015 01.1  0.00537   +1.07496   +1.06209     -1.197254 
  22    0   22  6   0  0 0.015 01.1  0.00538   +1.07533   +1.07459     -0.068816 
  23    0   23  6   0  0 0.015 01.1  0.00537   +1.07485   +1.06816     -0.622412 
  24    0   24  6   0  0 0.015 01.1  0.00536   +1.07286   +1.05729     -1.451261 
  25    0   25  6   0  0 0.015 01.1  0.00544   +1.08759   +1.10014     +1.153927 
  26    0   26  6   0  0 0.015 01.1  0.00514   +1.02867   +1.01974     -0.868111 
  27    0   27  6   0  0 0.015 01.1  0.00515   +1.02903   +1.03470     +0.551004 
  28    0   28  6   0  0 0.015 01.1  0.00516   +1.03199   +1.02129     -1.036832 
  29    0   29  6   0  0 0.015 01.1  0.00518   +1.03551   +1.05025     +1.423453 
  30    0   30  6   0  0 0.015 01.1  0.00539   +1.07876   +1.07884     +0.007416 
  31    0   31  6   0  0 0.015 01.1  0.00533   +1.06602   +1.07854     +1.174462 
  32    0   32  6   0  0 0.015 01.1  0.00535   +1.06935   +1.07661     +0.678917 
  33    0   33  6   0  0 0.015 01.1  0.00534   +1.06838   +1.06829     -0.008424 
  34    0   34  6   0  0 0.015 01.1  0.00525   +1.05049   +1.05387     +0.321755 
  35    0   35  6   0  0 0.015 01.1  0.00526   +1.05308   +1.04831     -0.452957 
  36    0   36  6   0  0 0.015 01.1  0.00528   +1.05686   +1.05769     +0.078535 
  37    0   37  6   0  0 0.015 01.1  0.00531   +1.06148   +1.07094     +0.891209 
  38    0   38  6   0  0 0.015 01.1  0.00538   +1.07637   +1.06906     -0.679134 
  39    0   39  6   0  0 0.015 01.1  0.00530   +1.06019   +1.05360     -0.621587 
  40    0   40  6   0  0 0.015 01.1  0.00527   +1.05432   +1.04951     -0.456218 
  41    0   41  6   0  0 0.015 01.1  0.00526   +1.05256   +1.06444     +1.128677 
  42    0   42  6   0  0 0.015 01.1  0.00523   +1.04579   +1.03303     -1.220130 
  43    0   43  6   0  0 0.015 01.1  0.00525   +1.04971   +1.04047     -0.880243 
  44    0   44  6   0  0 0.015 01.1  0.00537   +1.07395   +1.06760     -0.591275 
  45    0   45  6   0  0 0.015 01.1  0.00536   +1.07304   +1.06826     -0.445463 
  46    0   46  6   0  0 0.015 01.1  0.00553   +1.10520   +1.11272     +0.680420 
  47    0   47  6   0  0 0.015 01.1  0.00545   +1.09012   +1.10275     +1.158588 
  48    0   48  6   0  0 0.015 01.1  0.00543   +1.08595   +1.07135     -1.344445 
  49    0   49  6   0  0 0.015 01.1  0.00545   +1.09015   +1.07637     -1.264046 
  50    0   50  6   0  0 0.015 01.1  0.00539   +1.07814   +1.06244     -1.456212 
  51    0   51  6   0  0 0.015 01.1  0.00540   +1.08023   +1.07029     -0.920174 
  52    0   52  6   0  0 0.015 01.1  0.00516   +1.03211   +1.01744     -1.421360 
  53    0   53  6   0  0 0.015 01.1  0.00517   +1.03299   +1.03203     -0.092934 
  54    0   54  6   0  0 0.015 01.1  0.00524   +1.04757   +1.03950     -0.770354 
  55    0   55  6   0  0 0.015 01.1  0.00533   +1.06599   +1.07942     +1.259862 
  56    0   56  6   0  0 0.015 01.1  0.00526   +1.05275   +1.05956     +0.646877 
  57    0   57  6   0  0 0.015 01.1  0.00527   +1.05423   +1.05387     -0.034148 
  58    0    1  2   0  0 0.020 01.0  0.01310   +1.70430   +1.67115     -1.945080 
  59    0    2  2   0  0 0.020 01.0  0.00183   -0.01400   -0.01367     -2.357143 
  60    0    3  2   0  0 0.020 01.0  0.00311   +0.20699   +0.21009     +1.497657 
  61    0    4  2   0  0 0.020 01.0  0.00173   +0.00000   +0.00112     +0.000000 
  62    0    5  2   0  0 0.020 01.0  0.00214   -0.06100   -0.06203     +1.688525 
  63    0    6  2   0  0 0.020 01.0  0.00409   -0.35300   -0.36254     +2.702550 
  64    0    7  2   0  0 0.020 01.0  0.00173   +0.00000   +0.00329     +0.000000 
  65    0    8  2   0  0 0.020 01.0  0.00245   +0.10801   +0.10431     -3.425609 
  66    0    9  2   0  0 0.020 01.0  0.00214   -0.06100   -0.06088     -0.196721 
  67    0   10  2   0  0 0.020 01.0  0.00257   -0.12500   -0.12032     -3.744000 
  68    0   11  2   0  0 0.020 01.0  0.00173   +0.00000   +0.00010     +0.000000 
  69    0   12  2   0  0 0.020 01.0  0.00561   +0.58200   +0.57536     -1.140893 
  70    0   13  2   0  0 0.020 01.0  0.00230   -0.08500   -0.08000     -5.882353 
  71    0   14  2   0  0 0.020 01.0  0.00206   -0.04900   -0.05447    +11.163265 
  72    0   15  2   0  0 0.020 01.0  0.00242   -0.10300   -0.09965     -3.252427 
  73    0   16  2   0  0 0.020 01.0  0.00308   -0.20200   -0.19459     -3.668317 
  74    0   17  2   0  0 0.020 01.0  0.00305   -0.19700   -0.19766     +0.335025 
  75    0   18  2   0  0 0.020 01.0  0.00259   -0.12800   -0.12847     +0.367187 
  76    0   19  2   0  0 0.020 01.0  0.00184   -0.01600   -0.01982    +23.875000 
  77    0   20  2   0  0 0.020 01.0  0.00181   -0.01100   -0.00599    -45.545455 
  78    0   21  2   0  0 0.020 01.0  0.00173   -0.00000   +0.00391     +0.000000 
  79    0   22  2   0  0 0.020 01.0  0.00173   +0.00000   -0.00012     +0.000000 
  80    0   23  2   0  0 0.020 01.0  0.00193   -0.03000   -0.03108     +3.600000 
  81    0   24  2   0  0 0.020 01.0  0.00173   +0.00000   -0.00388     +0.000000 
  82    0   25  2   0  0 0.020 01.0  0.00193   -0.03000   -0.02507    -16.433333 
  83    0   26  2   0  0 0.020 01.0  0.00173   -0.00000   -0.00514     +0.000000 
  84    0   27  2   0  0 0.020 01.0  0.00203   -0.04400   -0.04781     +8.659091 
  85    0   28  2   0  0 0.020 01.0  0.00188   -0.02200   -0.02398     +9.000000 
  86    0   29  2   0  0 0.020 01.0  0.00227   -0.08000   -0.08612     +7.650000 
  87    0   30  2   0  0 0.020 01.0  0.00185   -0.01700   -0.02094    +23.176471 
  88    0   31  2   0  0 0.020 01.0  0.00191   -0.02700   -0.02437     -9.740741 
  89    0   32  2   0  0 0.020 01.0  0.00179   -0.00800   -0.00819     +2.375000 
  90    0   33  2   0  0 0.020 01.0  0.00185   -0.01800   -0.01980    +10.000000 
  91    0   34  2   0  0 0.020 01.0  0.00173   -0.00000   -0.00274     +0.000000 
  92    0   35  2   0  0 0.020 01.0  0.00192   -0.02800   -0.02857     +2.035714 
  93    0   36  2   0  0 0.020 01.0  0.00173   -0.00000   -0.00327     +0.000000 
  94    0   37  2   0  0 0.020 01.0  0.00173   +0.00000   -0.00183     +0.000000 
  95    0   38  2   0  0 0.020 01.0  0.00217   -0.06600   -0.06908     +4.666667 
  96    0   39  2   0  0 0.020 01.0  0.00173   -0.00000   +0.00343     +0.000000 
  97    0   40  2   0  0 0.020 01.0  0.00173   -0.00000   +0.00204     +0.000000 
  98    0   41  2   0  0 0.020 01.0  0.00193   -0.03000   -0.03193     +6.433333 
  99    0   42  2   0  0 0.020 01.0  0.00195   -0.03300   -0.03206     -2.848485 
 100    0   43  2   0  0 0.020 01.0  0.00179   -0.00900   -0.01128    +25.333333 
 101    0   44  2   0  0 0.020 01.0  0.00211   -0.05600   -0.05898     +5.321429 
 102    0   45  2   0  0 0.020 01.0  0.00173   +0.00000   -0.00250     +0.000000 
 103    0   46  2   0  0 0.020 01.0  0.00173   +0.00000   +0.00184     +0.000000 
 104    0   47  2   0  0 0.020 01.0  0.00267   -0.14000   -0.13968     -0.228571 
 105    0   48  2   0  0 0.020 01.0  0.00173   -0.00000   -0.00440     +0.000000 
 106    0   49  2   0  0 0.020 01.0  0.00230   -0.08500   -0.09113     +7.211765 
 107    0   50  2   0  0 0.020 01.0  0.00239   -0.09900   -0.10246     +3.494949 
 108    0   51  2   0  0 0.020 01.0  0.00230   -0.08500   -0.08583     +0.976471 
 109    0   52  2   0  0 0.020 01.0  0.00189   -0.02300   -0.02544    +10.608696 
 110    0   53  2   0  0 0.020 01.0  0.00236   -0.09400   -0.09147     -2.691489 
 111    0   54  2   0  0 0.020 01.0  0.00186   -0.01900   -0.01398    -26.421053 
 112    0   55  2   0  0 0.020 01.0  0.00195   -0.03200   -0.02880    -10.000000 
 113    0   56  2   0  0 0.020 01.0  0.00197   -0.03600   -0.03439     -4.472222 
 114    0   57  2   0  0 0.020 01.0  0.00194   -0.03100   -0.02805     -9.516129 
 115    0    1  5   0  0 0.020 01.0  0.00534   +0.54099   +0.54890     +1.462134 
 116    0    2  5   0  0 0.020 01.0  0.00563   -0.58400   -0.58109     -0.498288 
 117    0    3  5   0  0 0.020 01.0  0.00306   -0.19898   -0.19397     -2.517841 
 118    0    4  5   0  0 0.020 01.0  0.00173   +0.00000   -0.00112     +0.000000 
 119    0    5  5   0  0 0.020 01.0  0.00186   -0.01900   -0.01782     -6.210526 
 120    0    6  5   0  0 0.020 01.0  0.00233   -0.08900   -0.09252     +3.955056 
 121    0    7  5   0  0 0.020 01.0  0.00173   -0.00000   -0.00218     +0.000000 
 122    0    8  5   0  0 0.020 01.0  0.00189   -0.02415   -0.02961    +22.608696 
 123    0    9  5   0  0 0.020 01.0  0.00202   -0.04298   -0.04483     +4.304328 
 124    0   10  5   0  0 0.020 01.0  0.00207   -0.05000   -0.05444     +8.880000 
 125    0   11  5   0  0 0.020 01.0  0.00173   -0.00000   -0.00092     +0.000000 
 126    0   12  5   0  0 0.020 01.0  0.00268   -0.14260   -0.14818     +3.913043 
 127    0   13  5   0  0 0.020 01.0  0.00181   -0.01100   -0.00743    -32.454545 
 128    0   14  5   0  0 0.020 01.0  0.00190   -0.02500   -0.02227    -10.920000 
 129    0   15  5   0  0 0.020 01.0  0.00189   -0.02300   -0.02754    +19.739130 
 130    0   16  5   0  0 0.020 01.0  0.00183   -0.01400   -0.01049    -25.071429 
 131    0   17  5   0  0 0.020 01.0  0.00199   -0.03800   -0.04125     +8.552632 
 132    0   18  5   0  0 0.020 01.0  0.00204   -0.04600   -0.05081    +10.456522 
 133    0   19  5   0  0 0.020 01.0  0.00175   -0.00300   -0.00129    -57.000000 
 134    0   20  5   0  0 0.020 01.0  0.00177   -0.00500   -0.00018    -96.400000 
 135    0   21  5   0  0 0.020 01.0  0.00173   +0.00000   +0.00327     +0.000000 
 136    0   22  5   0  0 0.020 01.0  0.00173   +0.00000   +0.00128     +0.000000 
 137    0   23  5   0  0 0.020 01.0  0.00180   -0.01000   -0.01185    +18.500000 
 138    0   24  5   0  0 0.020 01.0  0.00173   -0.00000   -0.00232     +0.000000 
 139    0   25  5   0  0 0.020 01.0  0.00183   -0.01500   -0.01572     +4.800000 
 140    0   26  5   0  0 0.020 01.0  0.00173   +0.00000   -0.00156     +0.000000 
 141    0   27  5   0  0 0.020 01.0  0.00175   -0.00200   +0.00196   -198.000000 
 142    0   28  5   0  0 0.020 01.0  0.00181   -0.01100   -0.01635    +48.636364 
 143    0   29  5   0  0 0.020 01.0  0.00181   -0.01200   -0.00986    -17.833333 
 144    0   30  5   0  0 0.020 01.0  0.00179   -0.00800   -0.00974    +21.750000 
 145    0   31  5   0  0 0.020 01.0  0.00183   -0.01400   -0.01614    +15.285714 
 146    0   32  5   0  0 0.020 01.0  0.00176   -0.00400   -0.00244    -39.000000 
 147    0   33  5   0  0 0.020 01.0  0.00179   -0.00900   -0.00447    -50.333333 
 148    0   34  5   0  0 0.020 01.0  0.00173   -0.00000   +0.00409     +0.000000 
 149    0   35  5   0  0 0.020 01.0  0.00183   -0.01400   -0.00855    -38.928571 
 150    0   36  5   0  0 0.020 01.0  0.00173   +0.00000   -0.00444     +0.000000 
 151    0   37  5   0  0 0.020 01.0  0.00173   +0.00000   -0.00385     +0.000000 
 152    0   38  5   0  0 0.020 01.0  0.00195   -0.03300   -0.02736    -17.090909 
 153    0   39  5   0  0 0.020 01.0  0.00173   -0.00000   -0.00426     +0.000000 
 154    0   40  5   0  0 0.020 01.0  0.00173   +0.00000   +0.00194     +0.000000 
 155    0   41  5   0  0 0.020 01.0  0.00183   -0.01400   -0.00930    -33.571429 
 156    0   42  5   0  0 0.020 01.0  0.00187   -0.02100   -0.02503    +19.190476 
 157    0   43  5   0  0 0.020 01.0  0.00177   -0.00500   -0.00093    -81.400000 
 158    0   44  5   0  0 0.020 01.0  0.00179   -0.00800   -0.01315    +64.375000 
 159    0   45  5   0  0 0.020 01.0  0.00173   +0.00000   -0.00164     +0.000000 
 160    0   46  5   0  0 0.020 01.0  0.00173   +0.00000   -0.00272     +0.000000 
 161    0   47  5   0  0 0.020 01.0  0.00210   -0.05500   -0.04889    -11.109091 
 162    0   48  5   0  0 0.020 01.0  0.00173   -0.00000   +0.00360     +0.000000 
 163    0   49  5   0  0 0.020 01.0  0.00200   -0.04000   -0.03647     -8.825000 
 164    0   50  5   0  0 0.020 01.0  0.00206   -0.04900   -0.04405    -10.102041 
 165    0   51  5   0  0 0.020 01.0  0.00190   -0.02500   -0.02181    -12.760000 
 166    0   52  5   0  0 0.020 01.0  0.00180   -0.01000   -0.00637    -36.300000 
 167    0   53  5   0  0 0.020 01.0  0.00205   -0.04700   -0.04920     +4.680851 
 168    0   54  5   0  0 0.020 01.0  0.00178   -0.00700   -0.00441    -37.000000 
 169    0   55  5   0  0 0.020 01.0  0.00184   -0.01600   -0.01418    -11.375000 
 170    0   56  5   0  0 0.020 01.0  0.00180   -0.01000   -0.01228    +22.800000 
 171    0   57  5   0  0 0.020 01.0  0.00179   -0.00900   -0.01075    +19.444444 
 172    1    2  1   0  0 0.020 01.0  0.00489   +0.47411   +0.48611     +2.531058 
 173    2    3  1   0  0 0.020 01.0  0.00478   +0.45683   +0.44341     -2.937635 
 174    3    4  1   0  0 0.020 01.0  0.00538   +0.54655   +0.55289     +1.160004 
 175    4    5  1   0  0 0.020 01.0  0.00291   +0.17600   +0.17092     -2.886364 
 176    4    6  1   0  0 0.020 01.0  0.00320   +0.21963   +0.22585     +2.832036 
 177    6    7  1   0  0 0.020 01.0  0.00192   +0.02839   +0.02514    -11.447693 
 178    6    8  1   0  0 0.020 01.0  0.00207   -0.05109   -0.05607     +9.747504 
 179    8    9  1   0  0 0.020 01.0  0.00246   -0.10867   -0.10691     -1.619582 
 180    9   10  1   0  0 0.020 01.0  0.00184   -0.01648   -0.02086    +26.577670 
 181    9   11  1   0  0 0.020 01.0  0.00209   -0.05394   -0.05018     -6.970708 
 182    9   12  1   0  0 0.020 01.0  0.00256   -0.12452   -0.11832     -4.979120 
 183    9   13  1   0  0 0.020 01.0  0.00239   -0.09904   -0.10173     +2.716074 
 184   13   14  1   0  0 0.020 01.0  0.00179   +0.00879   +0.00644    -26.734926 
 185   13   15  1   0  0 0.020 01.0  0.00299   -0.18843   -0.19728     +4.696704 
 186    1   15  1   0  0 0.020 01.0  0.00613   +0.65996   +0.65981     -0.022729 
 187    1   16  1   0  0 0.020 01.0  0.00341   +0.25211   +0.26211     +3.966523 
 188    1   17  1   0  0 0.020 01.0  0.00385   +0.31813   +0.32363     +1.728853 
 189    3   15  1   0  0 0.020 01.0  0.00248   +0.11130   +0.10849     -2.524708 
 190    4   18  1   0  0 0.020 01.0  0.00216   +0.06473   +0.06604     +2.023791 
 191    4   18  1   0  0 0.020 01.0  0.00229   +0.08287   +0.08673     +4.657898 
 192    5    6  1   0  0 0.020 01.0  0.00249   +0.11310   +0.10730     -5.128205 
 193    7    8  1   0  0 0.020 01.0  0.00283   -0.16511   -0.16376     -0.817637 
 194   10   12  1   0  0 0.020 01.0  0.00353   -0.26900   -0.26116     -2.914498 
 195   11   13  1   0  0 0.020 01.0  0.00274   -0.15144   -0.14832     -2.060222 
 196   12   13  1   0  0 0.020 01.0  0.00407   +0.35096   +0.34468     -1.789378 
 197   12   16  1   0  0 0.020 01.0  0.00205   -0.04724   -0.04917     +4.085521 
 198   12   17  1   0  0 0.020 01.0  0.00252   -0.11822   -0.11754     -0.575199 
 199   14   15  1   0  0 0.020 01.0  0.00377   -0.30599   -0.31578     +3.199451 
...
Número de medidores SCADA:     491
Número de PMUs:                0
Número de medidas das PMUs:    0
----------------------------------------------------------------------------------

Não há medidas de ângulo.
Não há medidores desabilitados.
============================== Estado Estimado ===================================
                 Barra     Mod(pu)    Ang(graus)              
----------------------------------------------------------------------------------
                    1            1.0395              0.00        
                    2            1.0237             -0.51        
                    3            1.0138             -2.70        
                    4            1.0110             -3.87        
                    5            1.0021             -5.26        
                    6            0.9998             -5.70        
                    7            1.0013             -5.87        
                    8            1.0042             -5.20        
                    9            1.0049             -4.88        
                   10            1.0046             -4.70        
                   11            1.0046             -4.60        
                   12            1.0143             -2.84        
                   13            1.0052             -3.92        
                   14            1.0033             -3.92        
                   15            1.0158             -3.10        
                   16            1.0201             -2.67        
                   17            1.0268             -1.77        
                   18            1.0466             -5.67        
                   19            1.0315             -6.12        
                   20            1.0295             -6.13        
                   21            1.0741             -5.88        
                   22            1.0742             -5.84        
                   23            1.0737             -5.92        
                   24            1.0719             -6.93        
                   25            1.0874             -8.64        
                   26            1.0278             -6.93        
                   27            1.0286             -6.93        
                   28            1.0313             -6.71        
                   29            1.0348             -6.54        
                   30            1.0786             -8.77        
                   31            1.0659             -8.75        
                   32            1.0682             -8.14        
                   33            1.0673             -8.15        
                   34            1.0485             -6.32        
                   35            1.0512             -6.18        
                   36            1.0549             -6.03        
                   37            1.0597             -5.96        
                   38            1.0752             -5.68        
                   39            1.0584             -5.97        
                   40            1.0523             -6.01        
                   41            1.0514             -6.15        
                   42            1.0439             -6.87        
                   43            1.0488             -5.08        
                   44            1.0727             -5.23        
                   45            1.0720             -3.97        
                   46            1.1043             -4.82        
                   47            1.0891             -5.51        
                   48            1.0849             -5.57        
                   49            1.0892             -5.65        
                   50            1.0773             -5.75        
                   51            1.0798             -5.15        
                   52            1.0314             -7.12        
                   53            1.0323             -7.36        
                   54            1.0470             -6.55        
                   55            1.0654             -5.61        
                   56            1.0507             -7.22        
                   57            1.0521             -7.44        
----------------------------------------------------------------------------------
Convergiu em:    2 iteraçoes. 
----------------------------------------------------------------------------------
--- RESIDUOS NORMALIZADOS --------------------------------------------------------
   N    D    P  TP      Real     Medido   Estimado      Med-Est        rn 
----------------------------------------------------------------------------------
 270    4   18  4    -0.0125    -0.0115    -0.0297  +1.8129e-02      0.452 
 350   18    4  1    -0.0647    -0.0594    -0.0791  +1.9637e-02      0.449 
 430   18    4  4    +0.0147    +0.0156    +0.0325  -1.6948e-02      0.422 
  58    0    1  2    +1.7043    +1.6711    +1.7005  -2.9339e-02      0.307 
 190    4   18  1    +0.0647    +0.0660    +0.0791  -1.3017e-02      0.298 
 118    0    4  5    +0.0000    -0.0011    +0.0064  -7.5152e-03      0.297 
 346   15    1  1    -0.6524    -0.6703    -0.6504  -1.9851e-02      0.267 
  29    0   29  6    +1.0355    +1.0502    +1.0348  +1.5432e-02      0.216 
 187    1   16  1    +0.2521    +0.2621    +0.2504  +1.1660e-02      0.207 
   1    0    1  6    +1.0400    +1.0542    +1.0395  +1.4726e-02      0.206 
  50    0   50  6    +1.0781    +1.0624    +1.0773  -1.4829e-02      0.204 
 105    0   48  2    -0.0000    -0.0044    +0.0010  -5.3692e-03      0.204 
  24    0   24  6    +1.0729    +1.0573    +1.0719  -1.4622e-02      0.202 
 132    0   18  5    -0.0460    -0.0508    -0.0577  +6.8836e-03      0.201 
 161    0   47  5    -0.0550    -0.0489    -0.0556  +6.7091e-03      0.197 
  52    0   52  6    +1.0321    +1.0174    +1.0314  -1.3970e-02      0.197 
  55    0   55  6    +1.0660    +1.0794    +1.0654  +1.3978e-02      0.193 
 450   28   27  4    +0.0031    +0.0079    +0.0009  +6.9702e-03      0.191 
  47    0   47  6    +1.0901    +1.1027    +1.0891  +1.3626e-02      0.186 
  48    0   48  6    +1.0859    +1.0714    +1.0849  -1.3587e-02      0.186 
 172    1    2  1    +0.4741    +0.4861    +0.4744  +1.1682e-02      0.185 
  41    0   41  6    +1.0526    +1.0644    +1.0514  +1.3080e-02      0.183 
  84    0   27  2    -0.0440    -0.0478    -0.0414  -6.3941e-03      0.182 
 459   36   35  4    +0.0188    +0.0238    +0.0173  +6.5479e-03      0.181 
  31    0   31  6    +1.0660    +1.0785    +1.0659  +1.2686e-02      0.180 
  75    0   18  2    -0.1280    -0.1285    -0.1216  -6.9031e-03      0.178 
  25    0   25  6    +1.0876    +1.1001    +1.0874  +1.2776e-02      0.178 
 255    4    5  4    -0.0262    -0.0205    -0.0279  +7.3526e-03      0.178 
 148    0   34  5    -0.0000    +0.0041    -0.0017  +5.7906e-03      0.177 
 308   38   44  4    +0.0956    +0.0896    +0.0972  -7.5994e-03      0.177 
  16    0   16  6    +1.0207    +1.0076    +1.0201  -1.2494e-02      0.176 
 331    9   55  4    +0.0346    +0.0394    +0.0328  +6.6061e-03      0.175 
  49    0   49  6    +1.0901    +1.0764    +1.0892  -1.2793e-02      0.175 
 214   30   31  1    +0.0132    +0.0186    +0.0121  +6.5589e-03      0.174 
 173    2    3  1    +0.4568    +0.4434    +0.4547  -1.1293e-02      0.173 
   9    0    9  6    +1.0056    +1.0170    +1.0049  +1.2084e-02      0.172 
 191    4   18  1    +0.0829    +0.0867    +0.0791  +7.6734e-03      0.170 
 111    0   54  2    -0.0190    -0.0140    -0.0193  +5.3140e-03      0.169 
 185   13   15  1    -0.1884    -0.1973    -0.1884  -8.9297e-03      0.169 
 359   15   14  1    +0.3079    +0.2992    +0.3090  -9.7778e-03      0.168 
 419    9    8  4    -0.0366    -0.0422    -0.0358  -6.4477e-03      0.167 
  21    0   21  6    +1.0750    +1.0621    +1.0741  -1.2058e-02      0.166 
 133    0   19  5    -0.0030    -0.0013    -0.0065  +5.2449e-03      0.164 
 311   46   47  4    +0.1546    +0.1628    +0.1550  +7.8029e-03      0.164 
 485   41   56  4    -0.0195    -0.0248    -0.0180  -6.8128e-03      0.163 
 343   13    9  1    +0.0995    +0.1065    +0.0989  +7.5752e-03      0.158 
   5    0    5  6    +1.0028    +1.0131    +1.0021  +1.1001e-02      0.157 
  37    0   37  6    +1.0615    +1.0709    +1.0597  +1.1266e-02      0.156 
  42    0   42  6    +1.0458    +1.0330    +1.0439  -1.0916e-02      0.154 
 466   42   41  4    +0.0029    +0.0067    +0.0009  +5.8112e-03      0.153 
 120    0    6  5    -0.0890    -0.0925    -0.0875  -5.0371e-03      0.151 
 175    4    5  1    +0.1760    +0.1709    +0.1787  -7.7766e-03      0.151 
 101    0   44  2    -0.0560    -0.0590    -0.0539  -5.0868e-03      0.151 
 199   14   15  1    -0.3060    -0.3158    -0.3071  -8.7153e-03      0.150 
 436   13   12  4    -0.0776    -0.0839    -0.0775  -6.3927e-03      0.149 
 212    7   29  1    +0.1935    +0.1875    +0.1946  -7.0987e-03      0.148 
  61    0    4  2    +0.0000    +0.0011    -0.0021  +3.1742e-03      0.147 
 207   24   25  1    +0.0296    +0.0343    +0.0282  +6.1830e-03      0.147 
 310   14   46  4    +0.1603    +0.1549    +0.1618  -6.8752e-03      0.144 
 233   48   49  1    -0.0078    -0.0124    -0.0067  -5.6689e-03      0.143 
 287   24   25  4    -0.0124    -0.0072    -0.0130  +5.8479e-03      0.143 
 147    0   33  5    -0.0090    -0.0045    -0.0096  +5.1044e-03      0.142 
 385   41   11  1    -0.0391    -0.0338    -0.0399  +6.1441e-03      0.142 
 481   55   54  4    +0.0169    +0.0217    +0.0162  +5.5050e-03      0.141 
 317   13   49  4    +0.2017    +0.2104    +0.2028  +7.5216e-03      0.141 
  28    0   28  6    +1.0320    +1.0213    +1.0313  -1.0003e-02      0.141 
 166    0   52  5    -0.0100    -0.0064    -0.0108  +4.4594e-03      0.140 
 424   14   13  4    -0.0462    -0.0521    -0.0464  -5.7186e-03      0.139 
  83    0   26  2    -0.0000    -0.0051    -0.0007  -4.4279e-03      0.139 
 301   37   38  4    -0.0859    -0.0855    -0.0911  +5.5974e-03      0.139 
 367   25   24  1    -0.0296    -0.0339    -0.0282  -5.7730e-03      0.137 
 245   56   41  1    -0.0191    -0.0135    -0.0192  +5.6927e-03      0.136 
 164    0   50  5    -0.0490    -0.0440    -0.0487  +4.6497e-03      0.135 
 372   29    7  1    -0.1935    -0.2011    -0.1946  -6.4313e-03      0.134 
 438   17   12  4    +0.0214    +0.0270    +0.0215  +5.4775e-03      0.134 
 415    5    4  4    +0.0041    +0.0007    +0.0059  -5.2151e-03      0.132 
 286   24   25  4    -0.0129    -0.0077    -0.0130  +5.3879e-03      0.131 
  51    0   51  6    +1.0802    +1.0703    +1.0798  -9.4829e-03      0.130 
 313   48   49  4    -0.0331    -0.0286    -0.0340  +5.3845e-03      0.129 
 256    4    6  4    -0.0017    +0.0026    -0.0024  +5.0213e-03      0.126 
 392   48   47  1    -0.1236    -0.1194    -0.1249  +5.5079e-03      0.125 
  56    0   56  6    +1.0528    +1.0596    +1.0507  +8.8986e-03      0.125 
 361   20   19  1    -0.0034    -0.0069    -0.0022  -4.6877e-03      0.124 
 226   41   42  1    +0.0390    +0.0439    +0.0388  +5.0308e-03      0.123 
 394   50   49  1    -0.0567    -0.0609    -0.0559  -5.0417e-03      0.123 
 109    0   52  2    -0.0230    -0.0254    -0.0215  -3.8929e-03      0.120 
 239   52   53  1    +0.0231    +0.0283    +0.0238  +4.5436e-03      0.120 
 274   10   12  4    -0.0314    -0.0262    -0.0311  +4.8514e-03      0.120 
 291   28   29  4    -0.0141    -0.0110    -0.0153  +4.3429e-03      0.119 
 264   13   14  4    +0.0352    +0.0305    +0.0353  -4.7934e-03      0.119 
  32    0   32  6    +1.0694    +1.0766    +1.0682  +8.4327e-03      0.119 
 192    5    6  1    +0.1131    +0.1073    +0.1126  -5.2942e-03      0.119 
 126    0   12  5    -0.1426    -0.1482    -0.1441  -4.0866e-03      0.117 
...